RING.sdf
  ChemDraw03192514392D

  0  0  0     0  0              0 V3000
M  V30 BEGIN CTAB
M  V30 COUNTS 18 20 0 0 0
M  V30 BEGIN ATOM
M  V30 1 C -2.081796 -0.460342 0.000000 0
M  V30 2 C -2.081796 -1.285342 0.000000 0
M  V30 3 C -1.367325 -1.697842 0.000000 0
M  V30 4 C -0.652854 -1.285342 0.000000 0
M  V30 5 C -0.652854 -0.460342 0.000000 0
M  V30 6 C -1.367325 -0.047842 0.000000 0
M  V30 7 C 0.061617 -1.697842 0.000000 0
M  V30 8 C 0.776088 -1.285342 0.000000 0
M  V30 9 C 0.776088 -0.460342 0.000000 0
M  V30 10 C 0.061617 -0.047842 0.000000 0
M  V30 11 C -2.796267 -0.047842 0.000000 0
M  V30 12 C -2.796267 -1.697842 0.000000 0
M  V30 13 C 1.490559 -0.047841 0.000000 0
M  V30 14 C 2.244234 -0.383399 0.000000 0
M  V30 15 C 2.796267 0.229695 0.000000 0
M  V30 16 C 2.383767 0.944166 0.000000 0
M  V30 17 C 1.576795 0.772639 0.000000 0
M  V30 18 C 2.719325 1.697842 0.000000 0
M  V30 END ATOM
M  V30 BEGIN BOND
M  V30 1 2 1 2
M  V30 2 1 2 3
M  V30 3 2 3 4
M  V30 4 1 4 5
M  V30 5 2 5 6
M  V30 6 1 6 1
M  V30 7 1 4 7
M  V30 8 2 7 8
M  V30 9 1 8 9
M  V30 10 2 9 10
M  V30 11 1 10 5
M  V30 12 1 1 11
M  V30 13 1 2 12
M  V30 14 1 9 13
M  V30 15 1 13 14
M  V30 16 1 14 15
M  V30 17 1 15 16
M  V30 18 1 16 17
M  V30 19 1 17 13
M  V30 20 1 16 18
M  V30 END BOND
M  V30 END CTAB
M  END
$$$$
RING.sdf
  ChemDraw03192514392D

  0  0  0     0  0              0 V3000
M  V30 BEGIN CTAB
M  V30 COUNTS 18 20 0 0 0
M  V30 BEGIN ATOM
M  V30 1 C -2.081796 -0.460342 0.000000 0
M  V30 2 C -2.081796 -1.285342 0.000000 0
M  V30 3 C -1.367325 -1.697842 0.000000 0
M  V30 4 C -0.652854 -1.285342 0.000000 0
M  V30 5 C -0.652854 -0.460342 0.000000 0
M  V30 6 C -1.367325 -0.047842 0.000000 0
M  V30 7 C 0.061617 -1.697842 0.000000 0
M  V30 8 N 0.776088 -1.285342 0.000000 0
M  V30 9 C 0.776088 -0.460342 0.000000 0
M  V30 10 C 0.061617 -0.047842 0.000000 0
M  V30 11 C -2.796267 -0.047842 0.000000 0
M  V30 12 C -2.796267 -1.697842 0.000000 0
M  V30 13 C 1.490559 -0.047841 0.000000 0
M  V30 14 C 2.244234 -0.383399 0.000000 0
M  V30 15 C 2.796267 0.229695 0.000000 0
M  V30 16 C 2.383767 0.944166 0.000000 0
M  V30 17 C 1.576795 0.772639 0.000000 0
M  V30 18 C 2.719324 1.697842 0.000000 0
M  V30 END ATOM
M  V30 BEGIN BOND
M  V30 1 2 1 2
M  V30 2 1 2 3
M  V30 3 2 3 4
M  V30 4 1 4 5
M  V30 5 2 5 6
M  V30 6 1 6 1
M  V30 7 1 4 7
M  V30 8 2 7 8
M  V30 9 1 8 9
M  V30 10 2 9 10
M  V30 11 1 10 5
M  V30 12 1 1 11
M  V30 13 1 2 12
M  V30 14 1 9 13
M  V30 15 1 13 14
M  V30 16 1 14 15
M  V30 17 1 15 16
M  V30 18 1 16 17
M  V30 19 1 17 13
M  V30 20 1 16 18
M  V30 END BOND
M  V30 END CTAB
M  END
$$$$
RING.sdf
  ChemDraw03192514392D

  0  0  0     0  0              0 V3000
M  V30 BEGIN CTAB
M  V30 COUNTS 21 23 0 0 0
M  V30 BEGIN ATOM
M  V30 1 C -2.500648 -0.618750 0.000000 0
M  V30 2 C -2.500648 -1.443750 0.000000 0
M  V30 3 C -1.786177 -1.856250 0.000000 0
M  V30 4 C -1.071707 -1.443750 0.000000 0
M  V30 5 C -1.071707 -0.618750 0.000000 0
M  V30 6 C -1.786177 -0.206250 0.000000 0
M  V30 7 C -0.357235 -1.856250 0.000000 0
M  V30 8 C 0.357236 -1.443750 0.000000 0
M  V30 9 C 0.357236 -0.618750 0.000000 0
M  V30 10 C -0.357235 -0.206250 0.000000 0
M  V30 11 C -3.215119 -0.206250 0.000000 0
M  V30 12 C -3.215119 -1.856250 0.000000 0
M  V30 13 C 1.071707 -0.206250 0.000000 0
M  V30 14 C 1.786178 -0.618749 0.000000 0
M  V30 15 C 2.500648 -0.206250 0.000000 0
M  V30 16 C 2.500648 0.618750 0.000000 0
M  V30 17 C 1.786178 1.031250 0.000000 0
M  V30 18 C 1.071707 0.618750 0.000000 0
M  V30 19 F 1.786178 1.856250 0.000000 0
M  V30 20 F 3.215119 1.031251 0.000000 0
M  V30 21 F 3.215119 -0.618750 0.000000 0
M  V30 END ATOM
M  V30 BEGIN BOND
M  V30 1 2 1 2
M  V30 2 1 2 3
M  V30 3 2 3 4
M  V30 4 1 4 5
M  V30 5 2 5 6
M  V30 6 1 6 1
M  V30 7 1 4 7
M  V30 8 2 7 8
M  V30 9 1 8 9
M  V30 10 2 9 10
M  V30 11 1 10 5
M  V30 12 1 1 11
M  V30 13 1 2 12
M  V30 14 1 9 13
M  V30 15 1 13 14
M  V30 16 1 14 15
M  V30 17 1 15 16
M  V30 18 1 16 17
M  V30 19 1 17 18
M  V30 20 1 18 13
M  V30 21 1 17 19
M  V30 22 1 16 20
M  V30 23 1 15 21
M  V30 END BOND
M  V30 END CTAB
M  END
$$$$
RING.sdf
  ChemDraw03192514392D

  0  0  0     0  0              0 V3000
M  V30 BEGIN CTAB
M  V30 COUNTS 21 23 0 0 0
M  V30 BEGIN ATOM
M  V30 1 C -2.500648 -0.618750 0.000000 0
M  V30 2 C -2.500648 -1.443750 0.000000 0
M  V30 3 C -1.786177 -1.856250 0.000000 0
M  V30 4 C -1.071707 -1.443750 0.000000 0
M  V30 5 C -1.071707 -0.618750 0.000000 0
M  V30 6 C -1.786177 -0.206250 0.000000 0
M  V30 7 C -0.357235 -1.856250 0.000000 0
M  V30 8 C 0.357236 -1.443750 0.000000 0
M  V30 9 C 0.357236 -0.618750 0.000000 0
M  V30 10 C -0.357235 -0.206250 0.000000 0
M  V30 11 C -3.215119 -0.206250 0.000000 0
M  V30 12 C -3.215119 -1.856250 0.000000 0
M  V30 13 C 1.071707 -0.206250 0.000000 0
M  V30 14 C 1.786178 -0.618749 0.000000 0
M  V30 15 C 2.500648 -0.206250 0.000000 0
M  V30 16 C 2.500648 0.618750 0.000000 0
M  V30 17 C 1.786178 1.031250 0.000000 0
M  V30 18 C 1.071707 0.618750 0.000000 0
M  V30 19 F 1.786178 1.856250 0.000000 0
M  V30 20 F 3.215119 1.031251 0.000000 0
M  V30 21 F 3.215119 -0.618750 0.000000 0
M  V30 END ATOM
M  V30 BEGIN BOND
M  V30 1 2 1 2
M  V30 2 1 2 3
M  V30 3 2 3 4
M  V30 4 1 4 5
M  V30 5 2 5 6
M  V30 6 1 6 1
M  V30 7 1 4 7
M  V30 8 2 7 8
M  V30 9 1 8 9
M  V30 10 2 9 10
M  V30 11 1 10 5
M  V30 12 1 1 11
M  V30 13 1 2 12
M  V30 14 1 9 13
M  V30 15 1 13 14
M  V30 16 1 14 15
M  V30 17 1 15 16
M  V30 18 1 16 17
M  V30 19 1 17 18
M  V30 20 1 18 13
M  V30 21 1 17 19
M  V30 22 1 16 20
M  V30 23 1 15 21
M  V30 END BOND
M  V30 END CTAB
M  END
$$$$
